[metadata]
name = specfem
version = 0.0.1
author = Congyue Cui
author_email = ccui@princeton.edu
description = Python interface for SPECFEM++.
long_description = file: README.md
long_description_content_type = text/markdown
maintainer_email = ccui@princeton.edu
url = https://github.com/icui/pyspecfem
classifiers = 
	Programming Language :: Python :: 3
	License :: OSI Approved :: MIT License
	Operating System :: OS Independent
keywords = Workflow, Cluster, MPI

[options]
python_requires = >=3.11
package_dir = 
	= src

[options.extras_require]
mpi = 
	mpi4py
docs = 
	sphinx
	furo
	myst-parser

[egg_info]
tag_build = 
tag_date = 0

